Version 4
SHEET 1 1236 1444
WIRE -336 -160 -336 -176
WIRE -208 -160 -208 -176
WIRE -16 -160 -48 -160
WIRE 112 -160 48 -160
WIRE 256 -160 112 -160
WIRE 416 -160 256 -160
WIRE 464 -160 416 -160
WIRE 608 -160 544 -160
WIRE 112 -144 112 -160
WIRE 256 -144 256 -160
WIRE -336 -64 -336 -80
WIRE -208 -64 -208 -80
WIRE 192 -64 192 -80
WIRE 464 -64 384 -64
WIRE 0 -48 -32 -48
WIRE 112 -48 112 -80
WIRE 112 -48 80 -48
WIRE 160 -48 128 -48
WIRE 416 -48 416 -160
WIRE 448 -48 416 -48
WIRE 464 -48 464 -64
WIRE 480 -48 464 -48
WIRE 496 -48 480 -48
WIRE 112 -32 112 -48
WIRE 144 -32 112 -32
WIRE 256 -32 256 -64
WIRE 256 -32 224 -32
WIRE 608 -32 608 -160
WIRE 608 -32 544 -32
WIRE 128 -16 128 -48
WIRE 128 -16 112 -16
WIRE 144 -16 144 -32
WIRE 160 -16 144 -16
WIRE 384 -16 384 -64
WIRE 416 -16 384 -16
WIRE 448 -16 448 -48
WIRE 480 -16 448 -16
WIRE -32 16 -32 -48
WIRE 192 16 192 0
WIRE 416 64 416 -16
WIRE 496 64 416 64
WIRE 608 64 608 -32
WIRE 608 64 576 64
WIRE 112 80 112 -16
WIRE 256 80 256 -32
WIRE 256 80 112 80
WIRE 416 96 416 64
WIRE -32 112 -32 96
WIRE 112 400 -96 400
WIRE -288 432 -576 432
WIRE -176 432 -208 432
WIRE 32 448 32 432
WIRE -176 464 -176 432
WIRE -128 464 -176 464
WIRE -176 496 -176 464
WIRE -576 528 -576 432
WIRE 32 544 32 528
WIRE -96 560 -96 400
WIRE 0 560 -96 560
WIRE 112 576 112 400
WIRE 112 576 64 576
WIRE 160 576 112 576
WIRE -128 592 -128 464
WIRE 0 592 -128 592
WIRE 32 624 32 608
WIRE -576 656 -576 608
WIRE -416 656 -576 656
WIRE -176 656 -176 576
WIRE -176 656 -416 656
WIRE -416 672 -416 656
WIRE 32 720 32 704
WIRE 224 976 16 976
WIRE -176 992 -464 992
WIRE 144 1024 144 1008
WIRE -96 1040 -96 992
WIRE -48 1040 -96 1040
WIRE -464 1072 -464 992
WIRE -96 1072 -96 1040
WIRE -96 1072 -112 1072
WIRE -112 1152 -128 1152
WIRE 144 1184 144 1104
WIRE 16 1200 16 976
WIRE 112 1200 16 1200
WIRE 224 1216 224 976
WIRE 224 1216 176 1216
WIRE 256 1216 224 1216
WIRE -48 1232 -48 1040
WIRE 112 1232 -48 1232
WIRE -464 1280 -464 1152
WIRE -304 1280 -464 1280
WIRE -128 1280 -128 1152
WIRE -128 1280 -304 1280
WIRE -304 1296 -304 1280
WIRE 144 1328 144 1248
WIRE 144 1424 144 1408
FLAG -208 -64 0
FLAG -336 -64 0
FLAG 160 576 -V
FLAG -32 112 0
FLAG -48 -160 0
FLAG 416 176 0
FLAG -208 -176 Vp
FLAG -336 -176 Vm
FLAG 192 -80 Vp
FLAG 192 16 Vm
FLAG -304 1296 0
FLAG -416 672 0
FLAG 256 1216 +V
FLAG 512 -64 +V
FLAG 512 0 -V
FLAG 608 -32 OUT
FLAG 32 432 0
FLAG 32 720 0
FLAG 144 1008 0
FLAG 144 1424 0
SYMBOL voltage -208 -176 R0
WINDOW 123 0 0 Left 0
WINDOW 39 0 0 Left 0
SYMATTR InstName V1
SYMATTR Value 15
SYMBOL voltage -336 -176 R0
SYMATTR InstName V2
SYMATTR Value -15
SYMBOL voltage -32 0 R0
WINDOW 3 48 94 Left 2
WINDOW 123 24 124 Left 2
WINDOW 39 0 0 Left 0
SYMATTR Value 0
SYMATTR InstName V4
SYMBOL res 240 -160 R0
SYMATTR InstName R3
SYMATTR Value 1k
SYMBOL cap 96 -144 R0
SYMATTR InstName C2
SYMATTR Value 100n
SYMBOL cap 48 -176 R90
WINDOW 0 0 32 VBottom 2
WINDOW 3 32 32 VTop 2
SYMATTR InstName C1
SYMATTR Value 2n
SYMBOL res 560 -176 R90
WINDOW 0 0 56 VBottom 2
WINDOW 3 32 56 VTop 2
SYMATTR InstName R1
SYMATTR Value 2.4k
SYMBOL res 592 48 R90
WINDOW 0 0 56 VBottom 2
WINDOW 3 32 56 VTop 2
SYMATTR InstName R2
SYMATTR Value 100k
SYMBOL res 400 80 R0
SYMATTR InstName R2b
SYMATTR Value 100k
SYMBOL voltage -576 512 R0
SYMATTR InstName V3
SYMATTR Value -15
SYMBOL voltage -464 1056 R0
SYMATTR InstName V5
SYMATTR Value 15
SYMBOL res 96 -64 R90
WINDOW 0 0 56 VBottom 2
WINDOW 3 32 56 VTop 2
SYMATTR InstName R6
SYMATTR Value 10k
SYMBOL OpAmps\\LT1357 512 -96 R0
SYMATTR InstName U3
SYMBOL OpAmps\\LT1357 192 -96 R0
SYMATTR InstName U1
SYMBOL OpAmps\\LT1357 32 512 R0
SYMATTR InstName U2
SYMBOL voltage 32 544 R180
WINDOW 123 0 0 Left 0
WINDOW 39 0 0 Left 0
SYMATTR InstName V8
SYMATTR Value 15
SYMBOL voltage 32 608 R0
SYMATTR InstName V9
SYMATTR Value -15
SYMBOL OpAmps\\LT1357 144 1152 R0
SYMATTR InstName U4
SYMBOL voltage 144 1120 R180
WINDOW 123 0 0 Left 0
WINDOW 39 0 0 Left 0
SYMATTR InstName V6
SYMATTR Value 15
SYMBOL voltage 144 1312 R0
SYMATTR InstName V7
SYMATTR Value -15
SYMBOL res -192 416 R90
WINDOW 0 0 56 VBottom 2
WINDOW 3 32 56 VTop 2
SYMATTR InstName R4
SYMATTR Value 2500
SYMBOL res -160 592 R180
WINDOW 0 36 76 Left 2
WINDOW 3 36 40 Left 2
SYMATTR InstName R5
SYMATTR Value 10000
SYMBOL res -96 1168 R180
WINDOW 0 36 76 Left 2
WINDOW 3 36 40 Left 2
SYMATTR InstName R7
SYMATTR Value 10000
SYMBOL res -192 1008 R270
WINDOW 0 32 56 VTop 2
WINDOW 3 0 56 VBottom 2
SYMATTR InstName R9
SYMATTR Value 2500
TEXT -392 176 Left 2 !.tran 0 0.05 0 startup
TEXT -96 -264 Left 2 !;ac oct 0.02 1 8k
